sistemas/EXIC/NE224-C2/EXIC_NE224-C2JPMOD24_6.LIS
CEPEL - CENTRO DE PESQUISAS DE ENERGIA ELETRICA - PROGRAMA DE ANALISE DE REDES - V11.07.02                                 PAG.  41

 **EPE DECENAL 2032** PESADA ** ANO 2026 ** NORTE SECO                           
 RELATORIO DE EXECUCAO DO FLUXO DE POTENCIA CONTINUADO

 Opcoes Ativadas: CREM CTAP STEP BPSI NEWT RCVG RMON FILE CONT CELO ATCR INDC STPO CTAF CTAF

 X----X----------------X--------------------------X-------------X---------X
                            AUMENTO DA CARGA                               
  NUM.   CONVERGENCIA        ATIVA E REATIVA (%)   CARGA DA AREA PASSO MAX 
          STATUS    P/Q  MAXIMO    AREA    SISTEMA   MW / Mvar    P/Q (%)  
 X----X------------X---X--------X--------X--------X-------------X---------X

     0 Convergente    1    0.000    0.000    0.000 15771.90 MW      1.0000
                      1    0.000    0.000    0.000  -594.67 Mvar    0.9000
     1 Convergente    3    1.000    1.000    1.000 15929.62 MW      1.0000
                      3    0.900    0.900    0.900  -600.03 Mvar    0.9000
     2 Convergente    3    2.000    2.000    2.000 16087.34 MW      1.0000
                      3    1.800    1.800    1.800  -605.38 Mvar    0.9000
     3 Convergente    3    3.000    3.000    3.000 16245.05 MW      1.0000
                      3    2.700    2.700    2.700  -610.73 Mvar    0.9000
     4 Convergente    3    4.000    4.000    4.000 16402.77 MW      1.0000
                      3    3.600    3.600    3.600  -616.08 Mvar    0.9000
     5 Convergente    3    5.000    5.000    5.000 16560.49 MW      1.0000
                      3    4.500    4.500    4.500  -621.43 Mvar    0.9000
     6 Convergente    3    6.000    6.000    6.000 16718.21 MW      1.0000
                      3    5.400    5.400    5.400  -626.79 Mvar    0.9000
     7 Convergente    3    7.000    7.000    7.000 16875.93 MW      1.0000
                      3    6.300    6.300    6.300  -632.14 Mvar    0.9000
     8 Convergente    3    8.000    8.000    8.000 17033.65 MW      1.0000
                      3    7.200    7.200    7.200  -637.49 Mvar    0.9000
     9 Convergente    3    9.000    9.000    9.000 17191.37 MW      1.0000
                      3    8.100    8.100    8.100  -642.84 Mvar    0.9000
    10 Convergente    3   10.000   10.000   10.000 17349.09 MW      1.0000
                      3    9.000    9.000    9.000  -648.19 Mvar    0.9000
    11 Convergente    3   11.000   11.000   11.000 17506.81 MW      1.0000
                      3    9.900    9.900    9.900  -653.55 Mvar    0.9000
    12 Convergente    3   12.000   12.000   12.000 17664.53 MW      1.0000
                      3   10.800   10.800   10.800  -658.90 Mvar    0.9000
    13 Convergente    3   13.000   13.000   13.000 17822.24 MW      1.0000
                      3   11.700   11.700   11.700  -664.25 Mvar    0.9000
    14 Convergente    3   14.000   14.000   14.000 17979.96 MW      1.0000
                      3   12.600   12.600   12.600  -669.60 Mvar    0.9000
    15 Convergente    3   15.000   15.000   15.000 18137.68 MW      1.0000
                      3   13.500   13.500   13.500  -674.95 Mvar    0.9000
    16 Convergente    3   16.000   16.000   16.000 18295.40 MW      1.0000
                      3   14.400   14.400   14.400  -680.31 Mvar    0.9000
    17 Convergente    3   17.000   17.000   17.000 18453.12 MW      1.0000
                      3   15.300   15.300   15.300  -685.66 Mvar    0.9000
    18 Convergente    2   18.000   18.000   18.000 18610.84 MW      1.0000
                      2   16.200   16.200   16.200  -691.01 Mvar    0.9000
    19 Convergente    2   19.000   19.000   19.000 18768.56 MW      1.0000
                      2   17.100   17.100   17.100  -696.36 Mvar    0.9000
    20 Convergente    2   20.000   20.000   20.000 18926.28 MW      1.0000
                      2   18.000   18.000   18.000  -701.72 Mvar    0.9000
    21 Convergente    2   21.000   21.000   21.000 19084.00 MW      1.0000
                      2   18.900   18.900   18.900  -707.07 Mvar    0.9000
CEPEL - CENTRO DE PESQUISAS DE ENERGIA ELETRICA - PROGRAMA DE ANALISE DE REDES - V11.07.02                                 PAG.  42

    22.0000                                                                      
 RELATORIO DE EXECUCAO DO FLUXO DE POTENCIA CONTINUADO

 Opcoes Ativadas: CREM CTAP STEP BPSI NEWT RCVG RMON FILE CONT CELO ATCR INDC STPO CTAF CTAF

 X----X----------------X--------------------------X-------------X---------X
                            AUMENTO DA CARGA                               
  NUM.   CONVERGENCIA        ATIVA E REATIVA (%)   CARGA DA AREA PASSO MAX 
          STATUS    P/Q  MAXIMO    AREA    SISTEMA   MW / Mvar    P/Q (%)  
 X----X------------X---X--------X--------X--------X-------------X---------X

    22 Convergente    2   22.000   22.000   22.000 19241.72 MW      1.0000
                      2   19.800   19.800   19.800  -712.42 Mvar    0.9000
    23 Convergente    2   23.000   23.000   23.000 19399.43 MW      1.0000
                      2   20.700   20.700   20.700  -717.77 Mvar    0.9000
    24 Convergente    2   24.000   24.000   24.000 19557.15 MW      1.0000
                      2   21.600   21.600   21.600  -723.12 Mvar    0.9000
    25 Convergente    2   25.000   25.000   25.000 19714.87 MW      1.0000
                      2   22.500   22.500   22.500  -728.48 Mvar    0.9000
    26 Convergente    2   26.000   26.000   26.000 19872.59 MW      1.0000
                      2   23.400   23.400   23.400  -733.83 Mvar    0.9000
    27 Convergente    2   27.000   27.000   27.000 20030.31 MW      1.0000
                      2   24.300   24.300   24.300  -739.18 Mvar    0.9000
    28 Convergente    2   28.000   28.000   28.000 20188.03 MW      1.0000
                      2   25.200   25.200   25.200  -744.53 Mvar    0.9000
    29 Convergente    2   29.000   29.000   29.000 20345.75 MW      1.0000
                      2   26.100   26.100   26.100  -749.88 Mvar    0.9000
    30 Convergente    2   30.000   30.000   30.000 20503.47 MW      1.0000
                      2   27.000   27.000   27.000  -755.24 Mvar    0.9000
 
 Numero maximo de iteracoes atingido
CEPEL - CENTRO DE PESQUISAS DE ENERGIA ELETRICA - PROGRAMA DE ANALISE DE REDES - V11.07.02                                 PAG.  43

 **EPE DECENAL 2032** PESADA ** ANO 2026 ** NORTE SECO                           
 RELATORIO DE TOTAIS DE AREA

 X----X--------X--------X--------X--------X--------X--------X--------X--------X
  AREA  GERACAO  INJ EQV   CARGA   ELO CC    SHUNT   EXPORT   IMPORT   PERDAS
  NUM.    MW/      MW/      MW/      MW/     Mvar/     MW/      MW/      MW/
         Mvar     Mvar     Mvar     Mvar     EQUIV    Mvar     Mvar     Mvar
 X----X--------X--------X--------X--------X--------X--------X--------X--------X

   200  21299.9      0.0  20503.5      0.0   2733.6      0.0      0.0    796.5
        -3940.4      0.0   -755.2      0.0      0.0      0.0      0.0   -451.7

 TOTAL  21299.9      0.0  20503.5      0.0   2733.6      0.0      0.0    796.5
        -3940.4      0.0   -755.2      0.0      0.0      0.0      0.0   -451.7
CEPEL - CENTRO DE PESQUISAS DE ENERGIA ELETRICA - PROGRAMA DE ANALISE DE REDES - V11.07.02                                 PAG.  44

 **EPE DECENAL 2032** PESADA ** ANO 2026 ** NORTE SECO                           
 Listagem dos casos armazenados de Fluxo de Potencia - ANAREDE
 Arquivo Historico: C:\USERS\JOAOPEDROPETERSBARBO\DROPBOX\GITPYANA\PYANA\SISTEMAS\EXIC\NE224-C2\EXLF
 X----X-------------------------------------------------------------------------------------X
  CASO                      INFORMACOES DO CASO GRAVADO
 X----X-------------------------------------------------------------------------------------X

     1 DATA: 06/01/2025 / HORA: 12:10:00   / VERSAO DO PROGRAMA: V11.07.02             
 --------------------------------------------------------------------------------
                                   Comentarios                                   
 --------------------------------------------------------------------------------
     (-------------------------------- Comentarios ------------------------------
 ---)                                                                            
 SISTEMA NE REDUZIDO                                                             
CEPEL - CENTRO DE PESQUISAS DE ENERGIA ELETRICA - PROGRAMA DE ANALISE DE REDES - V11.07.02                                 PAG.  45

 **EPE DECENAL 2032** PESADA ** ANO 2026 ** NORTE SECO                           
 RELATORIO DE PADRAO PARA OPCOES DE EXECUCAO

 X------X------X------X------X------X------X------X------X------X------X
  OPCAO  OPCAO  OPCAO  OPCAO  OPCAO  OPCAO  OPCAO  OPCAO  OPCAO  OPCAO
  NOME E NOME E NOME E NOME E NOME E NOME E NOME E NOME E NOME E NOME E
 X----X-X----X-X----X-X----X-X----X-X----X-X----X-X----X-X----X-X----X-X

  CREM L CTAP L STEP L NEWT L RCVG L RMON L FILE L SUBS L CONT L NOVO L
  CELO L MFCT L ATCR L INDC L AREG L STPO L VLCR L CPHS L


 *** AVISO ***: Nao foram encontradas inconsistencias no arquivo historico e ele sera restabelecido normalmente.
CEPEL - CENTRO DE PESQUISAS DE ENERGIA ELETRICA - PROGRAMA DE ANALISE DE REDES - V11.07.02                                 PAG.  46

 **EPE DECENAL 2032** PESADA ** ANO 2026 ** NORTE SECO                           
 RELATORIO DE CONVERGENCIA

 OPCOES ATIVADAS: CREM CTAP STEP BPSI NEWT RCVG RMON FILE CONT CELO ATCR INDC STPO VLCR CPHS





 CONVERGENCIA FINAL

 X-----------X------X------X---------------X---------------X---------------X
    ITERACAO          FREQ. ERRO MAX BARRA  ERRO MAX BARRA  ERRO MAX  CONV  
  FC  P  Q  V  M.O.   (Hz)      MW    NUM.     Mvar   NUM.  TENSAO %  NUM.  
 X--X--X--X--X------X------X---------X-----X---------X-----X---------X-----X

   0                             0.00     0      0.00     0
      0  0  0 1.0000 60.000      0.00   587      0.00   500     0.000     0
CEPEL - CENTRO DE PESQUISAS DE ENERGIA ELETRICA - PROGRAMA DE ANALISE DE REDES - V11.07.02                                 PAG.  47

 **EPE DECENAL 2032** PESADA ** ANO 2026 ** NORTE SECO                           

 --- CASO ANAREDE 07 GRAVADO. ---
 **EPE DECENAL 2032** PESADA ** ANO 2026 ** NORTE SECO                           

